REMARK  25 active torsions:
REMARK  status: ('A' for Active; 'I' for Inactive)
REMARK    1  A    between atoms: C_1  and  C1_3 
REMARK       I    between atoms: C_1  and  N_9 
REMARK    2  A    between atoms: CA_11  and  N_9 
REMARK    3  A    between atoms: C_12  and  CA_11 
REMARK    4  A    between atoms: CA_11  and  CB_14 
REMARK       I    between atoms: C_12  and  N_18 
REMARK    5  A    between atoms: CB_14  and  CG_15 
REMARK    6  A    between atoms: CD_16  and  CG_15 
REMARK    7  A    between atoms: N_18  and  CA_20 
REMARK    8  A    between atoms: CA_20  and  CB_23 
REMARK    9  A    between atoms: CA_20  and  C_21 
REMARK       I    between atoms: C_21  and  N_31 
REMARK   10  A    between atoms: CB_23  and  CG_24 
REMARK   11  A    between atoms: CG_24  and  CD_25 
REMARK   12  A    between atoms: CD_25  and  CE_26 
REMARK   13  A    between atoms: CE_26  and  NZ_27 
REMARK   14  A    between atoms: N_31  and  CA_33 
REMARK   15  A    between atoms: C_34  and  CA_33 
REMARK   16  A    between atoms: CA_33  and  CB_36 
REMARK       I    between atoms: C_34  and  N1_49 
REMARK   17  A    between atoms: CB_36  and  CG_37 
REMARK   18  A    between atoms: CG_37  and  CD_38 
REMARK   19  A    between atoms: CD_38  and  NE_39 
REMARK       I    between atoms: NE_39  and  CZ_41 
REMARK       I    between atoms: CZ_41  and  NH2_45 
REMARK       I    between atoms: CZ_41  and  NH1_42 
REMARK   20  A    between atoms: CA_59  and  N1_49 
REMARK   21  A    between atoms: CD_62  and  NE_51 
REMARK       I    between atoms: CZ_63  and  NE_51 
REMARK       I    between atoms: CZ_63  and  NH1_53 
REMARK   22  A    between atoms: C_64  and  CA_59 
REMARK   23  A    between atoms: CA_59  and  CB_60 
REMARK   24  A    between atoms: CB_60  and  CG_61 
REMARK   25  A    between atoms: CD_62  and  CG_61 
ROOT
ATOM      1  C   LYS F   3     -34.537 -25.357  23.453  1.00 37.84     0.241 C 
ATOM      2  O   LYS F   3     -34.224 -24.168  23.514  1.00 36.27    -0.271 OA
ATOM      3  N   ARG F   4     -33.712 -26.354  23.772  1.00 36.09    -0.346 N 
ATOM      4  HN  ARG F   4     -33.978 -27.311  23.540  1.00  0.00     0.163 HD
ENDROOT
BRANCH   3   5
ATOM      5  CA  ARG F   4     -32.453 -26.118  24.437  1.00 37.70     0.176 C 
BRANCH   5   6
ATOM      6  C   ARG F   4     -31.266 -26.726  23.751  1.00 36.04     0.241 C 
ATOM      7  O   ARG F   4     -31.311 -27.862  23.283  1.00 35.61    -0.271 OA
HETATM    8  N1  OAR F   5     -30.172 -25.977  23.727  1.00 34.62    -0.349 N 
ATOM      9  H1  OAR F   5     -30.230 -24.993  23.989  1.00  0.00     0.163 HD
BRANCH   8  10
HETATM   10  CA  OAR F   5     -28.879 -26.545  23.329  1.00 33.80     0.146 C 
BRANCH  10  11
HETATM   11  C   OAR F   5     -27.881 -26.491  24.459  1.00 35.94     0.256 C 
HETATM   12  O   OAR F   5     -27.956 -27.272  25.405  1.00 39.49    -0.305 OA
ENDBRANCH  10  11
BRANCH  10  13
HETATM   13  CB  OAR F   5     -28.277 -25.831  22.117  1.00 30.37     0.034 C 
BRANCH  13  14
HETATM   14  CG  OAR F   5     -29.161 -25.978  20.873  1.00 28.39     0.022 C 
BRANCH  14  15
HETATM   15  CD  OAR F   5     -29.414 -27.445  20.568  1.00 25.46     0.138 C 
BRANCH  15  16
HETATM   16  NE  OAR F   5     -30.060 -27.696  19.291  1.00 25.12    -0.227 N 
HETATM   17  CZ  OAR F   5     -31.345 -28.066  19.275  1.00 28.65     0.665 C 
HETATM   18  NH1 OAR F   5     -31.915 -28.401  18.125  1.00 30.37    -0.235 N 
HETATM   19  NH2 OAR F   5     -32.087 -28.110  20.404  1.00 28.05    -0.235 N 
ATOM     20 2HH1 OAR F   5     -31.355 -28.368  17.273  1.00  0.00     0.174 HD
ATOM     21 1HH1 OAR F   5     -32.895 -28.683  18.113  1.00  0.00     0.174 HD
ATOM     22 2HH2 OAR F   5     -31.649 -27.852  21.288  1.00  0.00     0.174 HD
ATOM     23 1HH2 OAR F   5     -33.067 -28.392  20.392  1.00  0.00     0.174 HD
ATOM     24  HE  OAR F   5     -29.541 -27.591  18.419  1.00  0.00     0.177 HD
ENDBRANCH  15  16
ENDBRANCH  14  15
ENDBRANCH  13  14
ENDBRANCH  10  13
ENDBRANCH   8  10
ENDBRANCH   5   6
BRANCH   5  25
ATOM     25  CB  ARG F   4     -32.552 -26.706  25.838  1.00 40.34     0.036 C 
BRANCH  25  26
ATOM     26  CG  ARG F   4     -32.566 -25.581  26.856  1.00 42.85     0.023 C 
BRANCH  26  27
ATOM     27  CD  ARG F   4     -33.887 -25.506  27.599  1.00 44.93     0.138 C 
BRANCH  27  28
ATOM     28  NE  ARG F   4     -33.698 -25.687  29.022  1.00 47.25    -0.227 N 
ATOM     29  CZ  ARG F   4     -34.173 -24.842  29.958  1.00 48.95     0.665 C 
ATOM     30  NH2 ARG F   4     -34.723 -23.652  29.643  1.00 47.22    -0.235 N 
ATOM     31  NH1 ARG F   4     -34.070 -25.218  31.237  1.00 47.23    -0.235 N 
ATOM     32 2HH2 ARG F   4     -35.083 -23.012  30.352  1.00  0.00     0.174 HD
ATOM     33 1HH2 ARG F   4     -34.802 -23.365  28.667  1.00  0.00     0.174 HD
ATOM     34 2HH1 ARG F   4     -34.430 -24.578  31.946  1.00  0.00     0.174 HD
ATOM     35 1HH1 ARG F   4     -33.654 -26.118  31.475  1.00  0.00     0.174 HD
ATOM     36  HE  ARG F   4     -33.173 -26.504  29.336  1.00  0.00     0.177 HD
ENDBRANCH  27  28
ENDBRANCH  26  27
ENDBRANCH  25  26
ENDBRANCH   5  25
ENDBRANCH   3   5
BRANCH   1  37
ATOM     37  CA  LYS F   3     -35.919 -25.765  23.000  1.00 38.87     0.176 C 
BRANCH  37  38
ATOM     38  N   LYS F   3     -36.024 -27.195  22.682  1.00 39.43    -0.346 N 
HETATM   39  C   NLE F   2     -35.697 -27.655  21.470  1.00 41.14     0.241 C 
HETATM   40  O   NLE F   2     -35.002 -27.034  20.690  1.00 39.35    -0.271 OA
ATOM     41  HN  LYS F   3     -36.351 -27.846  23.396  1.00  0.00     0.163 HD
BRANCH  39  42
HETATM   42  CA  NLE F   2     -36.202 -28.978  20.979  1.00 45.14     0.177 C 
BRANCH  42  43
HETATM   43  N   NLE F   2     -35.130 -29.772  20.371  1.00 46.25    -0.344 N 
HETATM   44  C   BEZ F   1     -34.324 -30.697  20.884  1.00 45.53     0.252 C 
HETATM   45  O1  BEZ F   1     -34.074 -30.793  22.080  1.00 46.26    -0.268 OA
ATOM     46  HN  NLE F   2     -34.975 -29.582  19.381  1.00  0.00     0.163 HD
BRANCH  44  47
HETATM   47  C1  BEZ F   1     -33.690 -31.655  19.908  1.00 44.48     0.032 A 
HETATM   48  C2  BEZ F   1     -34.467 -32.331  18.966  1.00 44.29     0.017 A 
HETATM   49  C3  BEZ F   1     -33.884 -33.231  18.065  1.00 44.33     0.001 A 
HETATM   50  C4  BEZ F   1     -32.510 -33.460  18.092  1.00 44.50     0.000 A 
HETATM   51  C5  BEZ F   1     -31.724 -32.788  19.032  1.00 45.08     0.001 A 
HETATM   52  C6  BEZ F   1     -32.309 -31.884  19.937  1.00 44.80     0.017 A 
ENDBRANCH  44  47
ENDBRANCH  42  43
BRANCH  42  53
HETATM   53  CB  NLE F   2     -37.112 -29.735  21.943  1.00 48.70     0.035 C 
BRANCH  53  54
HETATM   54  CG  NLE F   2     -37.962 -30.749  21.176  1.00 51.47     0.002 C 
BRANCH  54  55
HETATM   55  CD  NLE F   2     -39.129 -30.100  20.437  1.00 53.08    -0.004 C 
HETATM   56  CE  NLE F   2     -40.371 -30.877  20.751  1.00 53.90     0.005 C 
ENDBRANCH  54  55
ENDBRANCH  53  54
ENDBRANCH  42  53
ENDBRANCH  39  42
ENDBRANCH  37  38
BRANCH  37  57
ATOM     57  CB  LYS F   3     -36.967 -25.333  24.036  1.00 37.62     0.035 C 
BRANCH  57  58
ATOM     58  CG  LYS F   3     -38.371 -25.544  23.475  1.00 38.48     0.004 C 
BRANCH  58  59
ATOM     59  CD  LYS F   3     -39.394 -24.656  24.165  1.00 40.11     0.027 C 
BRANCH  59  60
ATOM     60  CE  LYS F   3     -40.800 -25.212  23.947  1.00 44.22     0.229 C 
BRANCH  60  61
ATOM     61  NZ  LYS F   3     -41.799 -24.171  24.121  1.00 47.30    -0.079 N 
ATOM     62  HZ3 LYS F   3     -41.711 -23.711  25.027  1.00  0.00     0.274 HD
ATOM     63  HZ2 LYS F   3     -41.614 -23.366  23.522  1.00  0.00     0.274 HD
ATOM     64  HZ1 LYS F   3     -42.738 -24.542  23.975  1.00  0.00     0.274 HD
ENDBRANCH  60  61
ENDBRANCH  59  60
ENDBRANCH  58  59
ENDBRANCH  57  58
ENDBRANCH  37  57
ENDBRANCH   1  37
TORSDOF 25
