REMARK  25 active torsions:
REMARK  status: ('A' for Active; 'I' for Inactive)
REMARK    1  A    between atoms: C_1  and  C1_3 
REMARK       I    between atoms: C_1  and  N_9 
REMARK    2  A    between atoms: CA_11  and  N_9 
REMARK    3  A    between atoms: C_12  and  CA_11 
REMARK    4  A    between atoms: CA_11  and  CB_14 
REMARK       I    between atoms: C_12  and  N_18 
REMARK    5  A    between atoms: CB_14  and  CG_15 
REMARK    6  A    between atoms: CD_16  and  CG_15 
REMARK    7  A    between atoms: N_18  and  CA_20 
REMARK    8  A    between atoms: CA_20  and  C_21 
REMARK    9  A    between atoms: CA_20  and  CB_23 
REMARK       I    between atoms: C_21  and  N_31 
REMARK   10  A    between atoms: CB_23  and  CG_24 
REMARK   11  A    between atoms: CG_24  and  CD_25 
REMARK   12  A    between atoms: CD_25  and  CE_26 
REMARK   13  A    between atoms: CE_26  and  NZ_27 
REMARK   14  A    between atoms: N_31  and  CA_33 
REMARK   15  A    between atoms: C_34  and  CA_33 
REMARK   16  A    between atoms: CA_33  and  CB_36 
REMARK       I    between atoms: C_34  and  N1_49 
REMARK   17  A    between atoms: CB_36  and  CG_37 
REMARK   18  A    between atoms: CG_37  and  CD_38 
REMARK   19  A    between atoms: CD_38  and  NE_39 
REMARK       I    between atoms: NE_39  and  CZ_41 
REMARK       I    between atoms: CZ_41  and  NH1_42 
REMARK       I    between atoms: CZ_41  and  NH2_45 
REMARK   20  A    between atoms: CA_59  and  N1_49 
REMARK   21  A    between atoms: CD_62  and  NE_51 
REMARK       I    between atoms: CZ_63  and  NE_51 
REMARK       I    between atoms: CZ_63  and  NH1_53 
REMARK   22  A    between atoms: C_64  and  CA_59 
REMARK   23  A    between atoms: CA_59  and  CB_60 
REMARK   24  A    between atoms: CB_60  and  CG_61 
REMARK   25  A    between atoms: CD_62  and  CG_61 
ROOT
ATOM      1  CA  ARG F   4     -32.698 -27.292  24.675  1.00 37.70     0.176 C 
ENDROOT
BRANCH   1   2
ATOM      2  C   ARG F   4     -31.588 -28.031  23.915  1.00 36.04     0.241 C 
ATOM      3  O   ARG F   4     -31.680 -29.231  23.681  1.00 35.61    -0.271 OA
HETATM    4  N1  OAR F   5     -30.660 -27.231  23.300  1.00 34.62    -0.345 N 
ATOM      5  H1  OAR F   5     -30.949 -26.298  23.006  1.00  0.00     0.163 HD
BRANCH   4   6
HETATM    6  CA  OAR F   5     -29.259 -27.643  23.037  1.00 33.80     0.185 C 
BRANCH   6   7
HETATM    7  C   OAR F   5     -28.451 -27.920  24.323  1.00 35.94     0.196 C 
HETATM    8  O   OAR F   5     -28.942 -27.626  25.400  1.00 39.49    -0.646 OA
HETATM    9  OXT OAR F   5     -27.292 -28.259  24.167  1.00  0.00    -0.646 OA
ENDBRANCH   6   7
BRANCH   6  10
HETATM   10  CB  OAR F   5     -28.555 -26.543  22.192  1.00 30.37     0.038 C 
BRANCH  10  11
HETATM   11  CG  OAR F   5     -29.173 -26.381  20.790  1.00 28.39     0.023 C 
BRANCH  11  12
HETATM   12  CD  OAR F   5     -28.908 -27.618  19.910  1.00 25.46     0.138 C 
BRANCH  12  13
HETATM   13  NE  OAR F   5     -29.889 -27.710  18.812  1.00 25.12    -0.227 N 
HETATM   14  CZ  OAR F   5     -31.117 -28.222  18.885  1.00 28.65     0.665 C 
HETATM   15  NH1 OAR F   5     -31.824 -28.375  17.782  1.00 30.37    -0.235 N 
HETATM   16  NH2 OAR F   5     -31.606 -28.643  20.047  1.00 28.05    -0.235 N 
ATOM     17 2HH1 OAR F   5     -31.449 -28.052  16.890  1.00  0.00     0.174 HD
ATOM     18 1HH1 OAR F   5     -32.764 -28.767  17.838  1.00  0.00     0.174 HD
ATOM     19 2HH2 OAR F   5     -31.059 -28.525  20.900  1.00  0.00     0.174 HD
ATOM     20 1HH2 OAR F   5     -32.546 -29.035  20.103  1.00  0.00     0.174 HD
ATOM     21  HE  OAR F   5     -29.598 -27.345  17.905  1.00  0.00     0.177 HD
ENDBRANCH  12  13
ENDBRANCH  11  12
ENDBRANCH  10  11
ENDBRANCH   6  10
ENDBRANCH   4   6
ENDBRANCH   1   2
BRANCH   1  22
ATOM     22  N   ARG F   4     -33.943 -27.179  23.899  1.00 36.09    -0.346 N 
ATOM     23  C   LYS F   3     -34.769 -26.125  23.906  1.00 37.84     0.241 C 
ATOM     24  O   LYS F   3     -34.592 -25.183  24.680  1.00 36.27    -0.271 OA
ATOM     25  HN  ARG F   4     -34.198 -27.969  23.307  1.00  0.00     0.163 HD
BRANCH  23  26
ATOM     26  CA  LYS F   3     -36.109 -26.209  23.125  1.00 38.87     0.176 C 
BRANCH  26  27
ATOM     27  N   LYS F   3     -36.421 -27.501  22.480  1.00 39.43    -0.346 N 
HETATM   28  C   NLE F   2     -35.767 -28.384  21.642  1.00 41.14     0.241 C 
HETATM   29  O   NLE F   2     -34.618 -28.155  21.312  1.00 39.35    -0.271 OA
ATOM     30  HN  LYS F   3     -37.360 -27.824  22.713  1.00  0.00     0.163 HD
BRANCH  28  31
HETATM   31  CA  NLE F   2     -36.636 -29.527  21.050  1.00 45.14     0.177 C 
BRANCH  31  32
HETATM   32  N   NLE F   2     -35.839 -30.525  20.292  1.00 46.25    -0.344 N 
HETATM   33  C   BEZ F   1     -34.724 -31.150  20.802  1.00 45.53     0.252 C 
HETATM   34  O1  BEZ F   1     -34.440 -31.039  21.987  1.00 46.26    -0.268 OA
ATOM     35  HN  NLE F   2     -36.133 -30.759  19.344  1.00  0.00     0.163 HD
BRANCH  33  36
HETATM   36  C1  BEZ F   1     -33.855 -31.892  19.831  1.00 44.48     0.032 A 
HETATM   37  C2  BEZ F   1     -34.371 -32.399  18.605  1.00 44.29     0.017 A 
HETATM   38  C3  BEZ F   1     -33.535 -33.097  17.723  1.00 44.33     0.001 A 
HETATM   39  C4  BEZ F   1     -32.187 -33.303  18.029  1.00 44.50     0.000 A 
HETATM   40  C5  BEZ F   1     -31.663 -32.800  19.239  1.00 45.08     0.001 A 
HETATM   41  C6  BEZ F   1     -32.498 -32.108  20.128  1.00 44.80     0.017 A 
ENDBRANCH  33  36
ENDBRANCH  31  32
BRANCH  31  42
HETATM   42  CB  NLE F   2     -37.534 -30.241  22.106  1.00 48.70     0.035 C 
BRANCH  42  43
HETATM   43  CG  NLE F   2     -38.601 -31.184  21.488  1.00 51.47     0.002 C 
BRANCH  43  44
HETATM   44  CD  NLE F   2     -39.645 -30.444  20.616  1.00 53.08    -0.004 C 
HETATM   45  CE  NLE F   2     -40.851 -31.340  20.277  1.00 53.90     0.005 C 
ENDBRANCH  43  44
ENDBRANCH  42  43
ENDBRANCH  31  42
ENDBRANCH  28  31
ENDBRANCH  26  27
BRANCH  26  46
ATOM     46  CB  LYS F   3     -37.290 -25.799  24.038  1.00 37.62     0.035 C 
BRANCH  46  47
ATOM     47  CG  LYS F   3     -38.644 -25.681  23.315  1.00 38.48     0.004 C 
BRANCH  47  48
ATOM     48  CD  LYS F   3     -39.677 -24.972  24.207  1.00 40.11     0.027 C 
BRANCH  48  49
ATOM     49  CE  LYS F   3     -41.071 -24.968  23.554  1.00 44.22     0.229 C 
BRANCH  49  50
ATOM     50  NZ  LYS F   3     -41.803 -23.692  23.768  1.00 47.30    -0.079 N 
ATOM     51  HZ3 LYS F   3     -41.864 -23.468  24.761  1.00  0.00     0.274 HD
ATOM     52  HZ2 LYS F   3     -41.249 -22.896  23.452  1.00  0.00     0.274 HD
ATOM     53  HZ1 LYS F   3     -42.727 -23.689  23.335  1.00  0.00     0.274 HD
ENDBRANCH  49  50
ENDBRANCH  48  49
ENDBRANCH  47  48
ENDBRANCH  46  47
ENDBRANCH  26  46
ENDBRANCH  23  26
ENDBRANCH   1  22
BRANCH   1  54
ATOM     54  CB  ARG F   4     -32.997 -27.913  26.055  1.00 40.34     0.036 C 
BRANCH  54  55
ATOM     55  CG  ARG F   4     -33.158 -26.824  27.135  1.00 42.85     0.023 C 
BRANCH  55  56
ATOM     56  CD  ARG F   4     -34.308 -27.080  28.117  1.00 44.93     0.138 C 
BRANCH  56  57
ATOM     57  NE  ARG F   4     -34.103 -26.432  29.432  1.00 47.25    -0.227 N 
ATOM     58  CZ  ARG F   4     -33.781 -25.171  29.688  1.00 48.95     0.665 C 
ATOM     59  NH1 ARG F   4     -33.518 -24.803  30.906  1.00 47.23    -0.235 N 
ATOM     60  NH2 ARG F   4     -33.689 -24.243  28.784  1.00 47.22    -0.235 N 
ATOM     61 2HH1 ARG F   4     -33.590 -25.532  31.616  1.00  0.00     0.174 HD
ATOM     62 1HH1 ARG F   4     -33.270 -23.833  31.103  1.00  0.00     0.174 HD
ATOM     63 2HH2 ARG F   4     -33.895 -24.532  27.828  1.00  0.00     0.174 HD
ATOM     64 1HH2 ARG F   4     -33.441 -23.273  28.981  1.00  0.00     0.174 HD
ATOM     65  HE  ARG F   4     -34.225 -27.033  30.247  1.00  0.00     0.177 HD
ENDBRANCH  56  57
ENDBRANCH  55  56
ENDBRANCH  54  55
ENDBRANCH   1  54
TORSDOF 25
